src/examples/case14_twoarea/two_area_02pulim_1_45/res_branch_2.csv
branch,from_bus,to_bus,X,B,G,Bfr,Bto,p_from,p_to,q_from,q_to,p_loss,q_loss,s_from,s_to,rate_a,ang_deg,angmin,angmax
7,4,5,0.035091666666666674,-24.893932620355088,9.470454071065912,9.221564058351388e-6,7.5460399998335535e-6,0.3100361412902696,-0.31030653308096495,0.5815695140469673,-0.5816812544314218,0.000270391790695379,-0.00011174038445449508,0.6590489424731564,0.6592747729358681,0.2,0.20479917772970507,-60.0001403060998,60.0001403060998
4,2,4,0.14693333333333336,-5.885305659136727,2.327547616024924,0.014164732377083728,0.014170689220541951,0.061233743906478184,-0.06000785976044114,-0.14037972584112104,0.11738802854992146,0.001225884146037047,-0.022991697291199584,0.15315364448824736,0.13183661282005826,0.2,1.0141496727886068,-60.0001403060998,60.0001403060998
2,1,5,0.18586666666666668,-4.960986416837608,1.442116287108176,0.020496614488060363,0.020504868948491344,0.17269827838642648,-0.17159950938001256,0.009326727992817536,-0.04247759382290116,0.0010987690064139244,-0.03315086583008362,0.1729499442401982,0.17677878152211704,0.2,1.9370100954023974,-60.0001403060998,60.0001403060998
3,2,3,0.164975,-5.606639580384883,1.5969351637097506,0.018252782333392732,0.018246400925236977,0.2005409528465363,-0.1987012426211101,-0.00031600900869016286,-0.0249887884369429,0.0018397102254261999,-0.025304797445633062,0.20054120182718133,0.20026638101967975,0.2,2.064247766113389,-60.0001403060998,60.0001403060998
5,2,5,0.14490000000000003,-5.977891265487068,2.3494840283818443,0.014414647926599723,0.01442364764321996,0.134889512005797,-0.13548187013367047,-0.0040467528286946735,-0.023268529083339123,0.0005923581278734769,-0.027315281912033796,0.13495020065794122,0.13746549232668884,0.2,1.2189488505183121,-60.0001403060998,60.0001403060998
6,3,4,0.142525,-5.746110761196531,2.70162876868788,0.005329516458191297,0.0053404827165754315,-0.16726622031658595,0.1700491604863189,-0.11107461230571826,0.1075624965711272,0.0027829401697329614,-0.0035121157345910647,0.20078734511383503,0.20121234467774485,0.2,-1.050098093324782,-60.0001403060998,60.0001403060998
1,1,2,0.04930833333333334,-17.566853405027203,6.90442348596078,0.02199901242976736,0.021997850862426564,0.2365000542096474,-0.23565904689667921,-0.009265154735607928,-0.028674189852560327,0.0008410073129681839,-0.03793934458816826,0.23668147103954065,0.23739712624198284,0.2,0.7180612448840855,-60.0001403060998,60.0001403060998
